LAMMPS (16 Mar 2018)
# Dissipative Particle Dynamics and Worm-like Chain model
# Silk assembly model, Greta Gronau 2011
# First equilibration

units		lj

# file name
variable	name index spider_A1B1A1B1A1B1A1B1x1200_silkworm_A1B1x0

# random number seed
variable	seed equal 11111

# shearrate
variable	shearrate equal 0.01

# temperature
variable	T equal 1

# DPD parameters
variable	cutoff equal 1.0
variable	gamma equal 4.5

# repulsive interaction parameters
variable	maxrepWW equal 25.0
variable	maxrepAA equal 25.0
variable	maxrepGG equal 25.0
variable	maxrepAW equal 40.0
variable	maxrepGW equal 26.0
variable	maxrepAG equal 27.0
variable	EHB equal 3.53
variable	hEHB equal 3.53		# in case different hEHB is used for 'a' between silkworm and spider

# number of timesteps
variable	dumpfreq equal 15000
variable	dumpfreq2 equal 10000 # dump frequency for stretch simulation
variable	tot_equil_step equal 210000
variable	tot_shear_step equal 420000
variable	tot_equilafter_step equal 150000
variable	tot_stretch_step equal 100000

variable	nfreq equal 5000
variable	nevery equal 1
variable	nrepeat equal 5000*0.5

timestep	0.03

atom_style	bond
comm_modify mode single vel yes

# INPUT and OUTPUT
read_data	spider_A1B1A1B1A1B1A1B1x1200_silkworm_A1B1x0.data
  triclinic box = (-30 -20 -20) to (30 20 20) with tilt (0 0 0)
  reading atoms ...
  288000 atoms
  scanning bonds ...
  reading bonds ...
  56400 bonds

thermo			100
thermo_style	custom step temp ke pe press pxx pyy pzz pxy lx

############# force field setup #########################
pair_style	hybrid/overlay soft 1.0 dpd 1 1 11111
pair_coeff	* * dpd 25.0 4.5 1.0
pair_coeff	1 1 soft 3.53 1.0
pair_coeff	4 4 soft 3.53 1.0
pair_coeff	1 4 soft 3.53 1.0
pair_coeff	1 1 dpd 25 4.5 1.0
pair_coeff	1 2 dpd 27 4.5 1.0
pair_coeff	2 2 dpd 25 4.5 1.0
pair_coeff	1 3 dpd 40 4.5 1.0
pair_coeff	2 3 dpd 26 4.5 1.0
pair_coeff	3 3 dpd 25 4.5 1.0
pair_coeff	3 4 dpd 30.0 4.5 1.0
pair_coeff	3 5 dpd 26 4.5 1.0
pair_coeff	4 5 dpd 27 4.5 1.0

### bond setup ###
bond_style	harmonic
bond_coeff	1 118.5 1.025
bond_coeff	2 118.5 0.778
special_bonds	lj 1.0 1.0 1.0 coul 1.0 1.0 1.0  # LAMMPS code changed so that DPD takes coul arguments

### neighbor setup
neighbor		1.0 bin
neigh_modify	delay 5

group	chains type 1 2 4 5
57600 atoms in group chains
group	water type 3
230400 atoms in group water

#timestep 0.04
#fix 1 all nve/limit 0.01
#run 10000
#unfix 1

reset_timestep 0
#timestep 0.04
### Equilibration Run ###
velocity	all create 1 11111 dist gaussian
dump		myDump-equil chains dcd 15000 equil_11111.dcd
fix			1 all nve
run			210000
  update every 1 steps, delay 5 steps, check yes
Step Temp KinEng PotEng Press Pxx Pyy Pzz Pxy Lx
0            1    1.4999948    9.5379179    25.893334     26.89816    26.997493    23.784349  -0.01808381           60
Averages over the last 1051 of 2101 rows, steps 105000 to 210000:
Temp KinEng PotEng Press Pxx Pyy Pzz Pxy Lx
1.02169 1.53253 3.43591 23.0621 23.0717 23.0664 23.0481 0.00536093 60
Loop time of 10862.9 on 16 procs for 210000 steps with 288000 atoms

write_restart	equil_11111.restart
  update every 1 steps, delay 5 steps, check yes
undump			myDump-equil

### Shear Run ###
fix		shear1 all deform 1 xy erate 0.01 units box remap v
dump	myDump-shear chains dcd 15000 shear_11111.dcd
run		420000
  update every 1 steps, delay 5 steps, check yes
Step Temp KinEng PotEng Press Pxx Pyy Pzz Pxy Lx
210000     1.021856    1.5327786    3.4275509    22.978778    22.981945    23.025327    22.929062 -0.0072294469           60
Averages over the last 2101 of 4201 rows, steps 420000 to 630000:
Temp KinEng PotEng Press Pxx Pyy Pzz Pxy Lx
1.0278 1.54169 3.38832 22.9645 22.949 22.9986 22.9461 -0.0204287 60
Loop time of 22735.6 on 16 procs for 420000 steps with 288000 atoms

write_restart	shear_11111.restart
  update every 1 steps, delay 5 steps, check yes
undump			myDump-shear

### Equilibration after Shear to Relax stress ###
unfix	shear1
dump	myDump-equilaftershear chains dcd 15000 equil_after_shear_11111.dcd
run		150000
  update every 1 steps, delay 5 steps, check yes
Step Temp KinEng PotEng Press Pxx Pyy Pzz Pxy Lx
630000     1.032771    1.5491512    3.3853679    22.911094    22.882245    22.921099    22.929938 0.0015730473           60
Averages over the last 751 of 1501 rows, steps 705000 to 780000:
Temp KinEng PotEng Press Pxx Pyy Pzz Pxy Lx
1.02177 1.53264 3.38651 22.9512 22.9115 22.9953 22.9469 0.00159634 60
Loop time of 8162.75 on 16 procs for 150000 steps with 288000 atoms

write_restart	shear_relaxed_11111.restart
  update every 1 steps, delay 5 steps, check yes
undump			myDump-equilaftershear

### Stretch by two times ###
fix		2 all deform 5000 x scale 2.0 y volume z volume
dump	myDump-stretch chains dcd 10000 stretch_11111.dcd

compute	stress_a all stress/atom NULL
compute	stress_c chains stress/atom NULL
compute	s_a all reduce sum c_stress_a[1] c_stress_a[2] c_stress_a[3] c_stress_a[4] c_stress_a[5] c_stress_a[6]
compute	s_c chains reduce sum c_stress_c[1] c_stress_c[2] c_stress_c[3] c_stress_c[4] c_stress_c[5] c_stress_c[6]

fix		stressout_a all ave/time 1 2500 5000 c_s_a[1] c_s_a[2] c_s_a[3] c_s_a[4] c_s_a[5] c_s_a[6] file all_stress_11111.txt
fix		stressout_c chains ave/time 1 2500 5000 c_s_c[1] c_s_c[2] c_s_c[3] c_s_c[4] c_s_c[5] c_s_c[6] file chains_stress_11111.txt

run		100000
  update every 1 steps, delay 5 steps, check yes
Step Temp KinEng PotEng Press Pxx Pyy Pzz Pxy Lx
780000    1.0235663    1.5353441    3.3853719    22.873442     22.82661    22.916024    22.877693  0.026946052           60
Averages over the last 501 of 1001 rows, steps 830000 to 880000:
Temp KinEng PotEng Press Pxx Pyy Pzz Pxy Lx
1.02176 1.53264 3.40569 22.9094 22.6547 23.0486 23.0251 -0.00068827 103.533
Loop time of 6368.25 on 16 procs for 100000 steps with 288000 atoms

undump	myDump-stretch
