LAMMPS (16 Mar 2018)
# Dissipative Particle Dynamics and Worm-like Chain model
# Silk assembly model, Greta Gronau 2011
# First equilibration

units		lj

# file name
variable	name index spider_A1B1A1B1A1B1A1B1A1B1A1B1A1B1A1B1A1B1A1B1A1B1A1B1x400_silkworm_A1B1x0

# random number seed
variable	seed equal 11111

# shearrate
variable	shearrate equal 0.01

# temperature
variable	T equal 1

# DPD parameters
variable	cutoff equal 1.0
variable	gamma equal 4.5

# repulsive interaction parameters
variable	maxrepWW equal 25.0
variable	maxrepAA equal 25.0
variable	maxrepGG equal 25.0
variable	maxrepAW equal 40.0
variable	maxrepGW equal 26.0
variable	maxrepAG equal 27.0
variable	EHB equal 3.53
variable	hEHB equal 3.53		# in case different hEHB is used for 'a' between silkworm and spider

# number of timesteps
variable	dumpfreq equal 15000
variable	dumpfreq2 equal 10000 # dump frequency for stretch simulation
variable	tot_equil_step equal 210000
variable	tot_shear_step equal 420000
variable	tot_equilafter_step equal 150000
variable	tot_stretch_step equal 100000

variable	nfreq equal 5000
variable	nevery equal 1
variable	nrepeat equal 5000*0.5

timestep	0.03

atom_style	bond
comm_modify mode single vel yes

# INPUT and OUTPUT
read_data	spider_A1B1A1B1A1B1A1B1A1B1A1B1A1B1A1B1A1B1A1B1A1B1A1B1x400_silkworm_A1B1x0.data
  triclinic box = (-30 -20 -20) to (30 20 20) with tilt (0 0 0)
  reading atoms ...
  288000 atoms
  scanning bonds ...
  reading bonds ...
  57200 bonds

thermo			100
thermo_style	custom step temp ke pe press pxx pyy pzz pxy lx

############# force field setup #########################
pair_style	hybrid/overlay soft 1.0 dpd 1 1 11111
pair_coeff	* * dpd 25.0 4.5 1.0
pair_coeff	1 1 soft 3.53 1.0
pair_coeff	4 4 soft 3.53 1.0
pair_coeff	1 4 soft 3.53 1.0
pair_coeff	1 1 dpd 25 4.5 1.0
pair_coeff	1 2 dpd 27 4.5 1.0
pair_coeff	2 2 dpd 25 4.5 1.0
pair_coeff	1 3 dpd 40 4.5 1.0
pair_coeff	2 3 dpd 26 4.5 1.0
pair_coeff	3 3 dpd 25 4.5 1.0
pair_coeff	3 4 dpd 30.0 4.5 1.0
pair_coeff	3 5 dpd 26 4.5 1.0
pair_coeff	4 5 dpd 27 4.5 1.0

### bond setup ###
bond_style	harmonic
bond_coeff	1 118.5 1.025
bond_coeff	2 118.5 0.778
special_bonds	lj 1.0 1.0 1.0 coul 1.0 1.0 1.0  # LAMMPS code changed so that DPD takes coul arguments

### neighbor setup
neighbor		1.0 bin
neigh_modify	delay 5

group	chains type 1 2 4 5
57600 atoms in group chains
group	water type 3
230400 atoms in group water

#timestep 0.04
#fix 1 all nve/limit 0.01
#run 10000
#unfix 1

reset_timestep 0
#timestep 0.04
### Equilibration Run ###
velocity	all create 1 11111 dist gaussian
dump		myDump-equil chains dcd 15000 equil_11111.dcd
fix			1 all nve
run			210000
  update every 1 steps, delay 5 steps, check yes
Step Temp KinEng PotEng Press Pxx Pyy Pzz Pxy Lx
0            1    1.4999948    9.6344959    26.188242    27.274353    27.229088    24.061285 -0.019618336           60
Averages over the last 1051 of 2101 rows, steps 105000 to 210000:
Temp KinEng PotEng Press Pxx Pyy Pzz Pxy Lx
1.02163 1.53244 3.42759 22.968 22.9724 22.9779 22.9537 -0.0043459 60
Loop time of 11001.7 on 16 procs for 210000 steps with 288000 atoms

write_restart	equil_11111.restart
  update every 1 steps, delay 5 steps, check yes
undump			myDump-equil

### Shear Run ###
fix		shear1 all deform 1 xy erate 0.01 units box remap v
dump	myDump-shear chains dcd 15000 shear_11111.dcd
run		420000
  update every 1 steps, delay 5 steps, check yes
Step Temp KinEng PotEng Press Pxx Pyy Pzz Pxy Lx
210000    1.0228861    1.5343238    3.4223879    22.884661    22.890108     22.87383    22.890044 0.0089290552           60
Averages over the last 2101 of 4201 rows, steps 420000 to 630000:
Temp KinEng PotEng Press Pxx Pyy Pzz Pxy Lx
1.02389 1.53583 3.38362 22.788 22.6482 22.8777 22.8381 -0.017402 60
Loop time of 22926.5 on 16 procs for 420000 steps with 288000 atoms

write_restart	shear_11111.restart
  update every 1 steps, delay 5 steps, check yes
undump			myDump-shear

### Equilibration after Shear to Relax stress ###
unfix	shear1
dump	myDump-equilaftershear chains dcd 15000 equil_after_shear_11111.dcd
run		150000
  update every 1 steps, delay 5 steps, check yes
Step Temp KinEng PotEng Press Pxx Pyy Pzz Pxy Lx
630000    1.0194169      1.52912    3.3778096    22.709035    22.587459    22.777189    22.762457  -0.04164208           60
Averages over the last 751 of 1501 rows, steps 705000 to 780000:
Temp KinEng PotEng Press Pxx Pyy Pzz Pxy Lx
1.02182 1.53272 3.37914 22.7826 22.6573 22.8624 22.828 -1.83423e-05 60
Loop time of 8133.08 on 16 procs for 150000 steps with 288000 atoms

write_restart	shear_relaxed_11111.restart
  update every 1 steps, delay 5 steps, check yes
undump			myDump-equilaftershear

### Stretch by two times ###
fix		2 all deform 5000 x scale 2.0 y volume z volume
dump	myDump-stretch chains dcd 10000 stretch_11111.dcd

compute	stress_a all stress/atom NULL
compute	stress_c chains stress/atom NULL
compute	s_a all reduce sum c_stress_a[1] c_stress_a[2] c_stress_a[3] c_stress_a[4] c_stress_a[5] c_stress_a[6]
compute	s_c chains reduce sum c_stress_c[1] c_stress_c[2] c_stress_c[3] c_stress_c[4] c_stress_c[5] c_stress_c[6]

fix		stressout_a all ave/time 1 2500 5000 c_s_a[1] c_s_a[2] c_s_a[3] c_s_a[4] c_s_a[5] c_s_a[6] file all_stress_11111.txt
fix		stressout_c chains ave/time 1 2500 5000 c_s_c[1] c_s_c[2] c_s_c[3] c_s_c[4] c_s_c[5] c_s_c[6] file chains_stress_11111.txt

run		100000
  update every 1 steps, delay 5 steps, check yes
Step Temp KinEng PotEng Press Pxx Pyy Pzz Pxy Lx
780000    1.0237485    1.5356175    3.3772494     22.72002    22.591221    22.806087    22.762751  0.041320615           60
Averages over the last 501 of 1001 rows, steps 830000 to 880000:
Temp KinEng PotEng Press Pxx Pyy Pzz Pxy Lx
1.02169 1.53253 3.44469 22.4806 21.5464 22.9596 22.9356 -0.000339669 103.533
Loop time of 6440.22 on 16 procs for 100000 steps with 288000 atoms

undump	myDump-stretch
